REMARK  32 active torsions:
REMARK  status: ('A' for Active; 'I' for Inactive)
REMARK    1  A    between atoms: CA_2  and  C_4 
REMARK       I    between atoms: C_4  and  N_6 
REMARK    2  A    between atoms: N_6  and  CA_8 
REMARK       I    between atoms: CA_8  and  CB_9 
REMARK    3  A    between atoms: CA_8  and  C_21 
REMARK       I    between atoms: CB_9  and  CG_10 
REMARK       I    between atoms: CG_10  and  CD_11 
REMARK       I    between atoms: CD_11  and  NE_12 
REMARK       I    between atoms: NE_12  and  CZ_14 
REMARK       I    between atoms: CZ_14  and  NH2_18 
REMARK       I    between atoms: CZ_14  and  NH1_15 
REMARK       I    between atoms: C_21  and  N_23 
REMARK    4  A    between atoms: N_23  and  CA_25 
REMARK       I    between atoms: CA_25  and  CB_26 
REMARK    5  A    between atoms: CA_25  and  C_30 
REMARK       I    between atoms: CB_26  and  CG1_28 
REMARK       I    between atoms: C_30  and  N_32 
REMARK    6  A    between atoms: N_32  and  CA_34 
REMARK       I    between atoms: CA_34  and  CB_35 
REMARK    7  A    between atoms: CA_34  and  C_39 
REMARK       I    between atoms: CB_35  and  CG_36 
REMARK       I    between atoms: C_39  and  N_41 
REMARK    8  A    between atoms: N_41  and  CA_43 
REMARK       I    between atoms: CA_43  and  CB_44 
REMARK    9  A    between atoms: CA_43  and  C_47 
REMARK       I    between atoms: CB_44  and  OG_45 
REMARK       I    between atoms: C_47  and  N_49 
REMARK   10  A    between atoms: N_49  and  CA_51 
REMARK   11  A    between atoms: CA_51  and  C_52 
REMARK       I    between atoms: C_52  and  N_54 
REMARK   12  A    between atoms: N_54  and  CA_56 
REMARK       I    between atoms: CA_56  and  CB_57 
REMARK   13  A    between atoms: CA_56  and  C_61 
REMARK       I    between atoms: CB_57  and  CG_58 
REMARK       I    between atoms: C_61  and  N_63 
REMARK   14  A    between atoms: N_63  and  CA_65 
REMARK   15  A    between atoms: CA_65  and  C_66 
REMARK       I    between atoms: C_66  and  N_68 
REMARK   16  A    between atoms: N_68  and  CA_70 
REMARK       I    between atoms: CA_70  and  CB_71 
REMARK   17  A    between atoms: CA_70  and  C_74 
REMARK       I    between atoms: CB_71  and  SG_72 
REMARK       I    between atoms: C_74  and  N_76 
REMARK   18  A    between atoms: N_76  and  CA_78 
REMARK       I    between atoms: CA_78  and  CB_79 
REMARK   19  A    between atoms: CA_78  and  C_91 
REMARK       I    between atoms: CB_79  and  CG_80 
REMARK       I    between atoms: CG_80  and  CD_81 
REMARK       I    between atoms: CD_81  and  NE_82 
REMARK       I    between atoms: NE_82  and  CZ_84 
REMARK       I    between atoms: CZ_84  and  NH1_85 
REMARK       I    between atoms: C_91  and  N_93 
REMARK   20  A    between atoms: N_93  and  CA_95 
REMARK   21  A    between atoms: CA_95  and  C_100 
REMARK       I    between atoms: CA_95  and  CB_96 
REMARK       I    between atoms: CB_96  and  CG_97 
REMARK       I    between atoms: C_100  and  N_102 
REMARK   22  A    between atoms: N_102  and  CA_104 
REMARK   23  A    between atoms: CA_104  and  C_112 
REMARK       I    between atoms: CA_104  and  CB_105 
REMARK       I    between atoms: CB_105  and  CG_106 
REMARK       I    between atoms: CG_106  and  CD_107 
REMARK       I    between atoms: CD_107  and  NE2_109 
REMARK       I    between atoms: C_112  and  N_114 
REMARK   24  A    between atoms: N_114  and  CA_116 
REMARK       I    between atoms: CA_116  and  CB_117 
REMARK   25  A    between atoms: CA_116  and  C_121 
REMARK       I    between atoms: CB_117  and  OG1_119 
REMARK       I    between atoms: C_121  and  N_123 
REMARK   26  A    between atoms: N_123  and  CA_125 
REMARK   27  A    between atoms: CA_125  and  C_129 
REMARK       I    between atoms: CA_125  and  CB_126 
REMARK       I    between atoms: CB_126  and  SG_127 
REMARK       I    between atoms: C_129  and  N_131 
REMARK   28  A    between atoms: N_131  and  CA_133 
REMARK       I    between atoms: CA_133  and  CB_134 
REMARK   29  A    between atoms: CA_133  and  C_137 
REMARK       I    between atoms: CB_134  and  OG_135 
REMARK       I    between atoms: C_137  and  N_139 
REMARK   30  A    between atoms: N_139  and  CA_141 
REMARK       I    between atoms: CA_141  and  CB_142 
REMARK   31  A    between atoms: CA_141  and  C_145 
REMARK       I    between atoms: CB_142  and  SG_143 
REMARK       I    between atoms: C_145  and  N_147 
REMARK   32  A    between atoms: N_147  and  CA_149 
REMARK       I    between atoms: CA_149  and  C_154 
REMARK       I    between atoms: CA_149  and  CB_150 
REMARK       I    between atoms: CB_150  and  CG_151 
REMARK       I    between atoms: C_154  and  N_156 
REMARK       I    between atoms: N_156  and  CA_158 
REMARK       I    between atoms: CA_158  and  C_162 
REMARK       I    between atoms: CA_158  and  CB_159 
REMARK       I    between atoms: C_162  and  N_164 
REMARK       I    between atoms: N_164  and  CA_166 
REMARK       I    between atoms: CA_166  and  CB_167 
REMARK       I    between atoms: CA_166  and  C_171 
REMARK       I    between atoms: CB_167  and  OG1_169 
REMARK       I    between atoms: C_171  and  N_173 
REMARK       I    between atoms: N_173  and  CA_175 
REMARK       I    between atoms: CA_175  and  C_181 
REMARK       I    between atoms: CA_175  and  CB_176 
REMARK       I    between atoms: CB_176  and  CG_177 
REMARK       I    between atoms: CG_177  and  CD_178 
REMARK       I    between atoms: C_181  and  N_183 
REMARK       I    between atoms: N_183  and  CA_185 
REMARK       I    between atoms: CA_185  and  C_197 
REMARK       I    between atoms: CA_185  and  CB_186 
REMARK       I    between atoms: CB_186  and  CG_187 
REMARK       I    between atoms: C_197  and  N_199 
REMARK       I    between atoms: N_199  and  CA_201 
REMARK       I    between atoms: CA_201  and  C_209 
REMARK       I    between atoms: CA_201  and  CB_202 
REMARK       I    between atoms: CB_202  and  CG_203 
REMARK       I    between atoms: C_209  and  N_211 
REMARK       I    between atoms: N_211  and  CA_213 
REMARK       I    between atoms: CA_213  and  C_220 
REMARK       I    between atoms: CA_213  and  CB_214 
REMARK       I    between atoms: CB_214  and  CG_215 
REMARK       I    between atoms: CG_215  and  ND2_217 
REMARK       I    between atoms: C_220  and  N_222 
REMARK       I    between atoms: N_222  and  CA_224 
REMARK       I    between atoms: CA_224  and  C_228 
REMARK       I    between atoms: CA_224  and  CB_225 
REMARK       I    between atoms: CB_225  and  OG_226 
REMARK       I    between atoms: C_228  and  N_230 
REMARK       I    between atoms: N_230  and  CA_232 
REMARK       I    between atoms: CA_232  and  C_237 
REMARK       I    between atoms: CA_232  and  CB_233 
REMARK       I    between atoms: CB_233  and  CG1_235 
REMARK       I    between atoms: C_237  and  N_239 
REMARK       I    between atoms: N_239  and  CA_241 
REMARK       I    between atoms: CA_241  and  CB_242 
REMARK       I    between atoms: CA_241  and  C_245 
REMARK       I    between atoms: CB_242  and  SG_243 
ROOT
ATOM      1  C   THR    13      48.151  41.313  42.591  1.00  0.82     0.243 C 
ATOM      2  O   THR    13      47.101  40.716  42.801  1.00  0.82    -0.271 OA
ATOM      3  N   CYS    14      48.207  42.648  42.518  1.00  0.92    -0.345 N 
ATOM      4  H   CYS    14      49.104  43.093  42.363  1.00  0.92     0.163 HD
ENDROOT
BRANCH   3   5
ATOM      5  CA  CYS    14      47.035  43.515  42.655  1.00  0.92     0.185 C 
ATOM      6  CB  CYS    14      47.468  44.995  42.641  1.00  0.92     0.105 C 
ATOM      7  SG  CYS    14      48.777  45.293  43.860  1.00  0.92    -0.180 SA
ATOM      8  HG  CYS    14      48.944  46.615  43.674  1.00  0.92     0.101 HD
BRANCH   5   9
ATOM      9  C   CYS    14      46.004  43.251  41.548  1.00  0.92     0.242 C 
ATOM     10  N   SER    15      46.483  43.141  40.303  1.00  1.00    -0.344 N 
ATOM     11  H   SER    15      47.470  43.299  40.160  1.00  1.00     0.163 HD
ATOM     12  O   CYS    14      44.820  43.103  41.826  1.00  0.92    -0.271 OA
BRANCH  10  13
ATOM     13  CA  SER    15      45.680  42.829  39.122  1.00  1.00     0.200 C 
ATOM     14  CB  SER    15      46.539  42.859  37.853  1.00  1.00     0.199 C 
ATOM     15  OG  SER    15      47.156  44.120  37.688  1.00  1.00    -0.398 OA
ATOM     16  HG  SER    15      47.785  44.270  38.411  1.00  1.00     0.209 HD
BRANCH  13  17
ATOM     17  C   SER    15      45.008  41.460  39.240  1.00  1.00     0.243 C 
ATOM     18  O   SER    15      43.814  41.327  38.957  1.00  1.00    -0.271 OA
ATOM     19  N   CYS    16      45.750  40.457  39.718  1.00  0.89    -0.345 N 
ATOM     20  H   CYS    16      46.724  40.640  39.926  1.00  0.89     0.163 HD
BRANCH  19  21
ATOM     21  CA  CYS    16      45.212  39.116  39.959  1.00  0.89     0.185 C 
ATOM     22  CB  CYS    16      46.348  38.175  40.396  1.00  0.89     0.105 C 
ATOM     23  SG  CYS    16      47.610  38.029  39.095  1.00  0.89    -0.180 SA
ATOM     24  HG  CYS    16      48.025  39.301  39.133  1.00  0.89     0.101 HD
BRANCH  21  25
ATOM     25  C   CYS    16      44.082  39.120  40.997  1.00  0.89     0.241 C 
ATOM     26  O   CYS    16      42.986  38.629  40.722  1.00  0.89    -0.271 OA
ATOM     27  N   LEU    17      44.329  39.735  42.160  1.00  0.94    -0.346 N 
ATOM     28  H   LEU    17      45.245  40.133  42.330  1.00  0.94     0.163 HD
BRANCH  27  29
ATOM     29  CA  LEU    17      43.328  39.800  43.225  1.00  0.94     0.177 C 
ATOM     30  C   LEU    17      42.068  40.583  42.825  1.00  0.94     0.241 C 
ATOM     31  O   LEU    17      40.960  40.175  43.169  1.00  0.94    -0.271 OA
ATOM     32  N   VAL    18      42.204  41.687  42.078  1.00  1.02    -0.346 N 
ATOM     33  H   VAL    18      43.138  42.010  41.849  1.00  1.02     0.163 HD
ATOM     34  CA  VAL    18      41.036  42.465  41.637  1.00  1.02     0.180 C 
ATOM     35  C   VAL    18      40.237  41.758  40.538  1.00  1.02     0.241 C 
ATOM     36  CB  VAL    18      41.387  43.930  41.321  1.00  1.02     0.009 C 
ATOM     37  N   THR    19      40.874  40.996  39.636  1.00  0.93    -0.344 N 
ATOM     38  O   VAL    18      39.004  41.840  40.549  1.00  1.02    -0.271 OA
ATOM     39  CA  THR    19      40.096  40.175  38.687  1.00  0.93     0.205 C 
ATOM     40  H   THR    19      41.887  40.949  39.638  1.00  0.93     0.163 HD
ATOM     41  CB  THR    19      40.867  39.807  37.411  1.00  0.93     0.146 C 
ATOM     42  C   THR    19      39.408  38.965  39.340  1.00  0.93     0.243 C 
ATOM     43  CG2 THR    19      41.865  38.663  37.528  1.00  0.93     0.042 C 
ATOM     44  OG1 THR    19      39.945  39.455  36.410  1.00  0.93    -0.393 OA
ATOM     45  HG1 THR    19      39.368  38.772  36.767  1.00  0.93     0.210 HD
ATOM     46  O   THR    19      38.280  38.648  38.957  1.00  0.93    -0.271 OA
ATOM     47  N   GLU    20      40.017  38.322  40.345  1.00  0.98    -0.346 N 
ATOM     48  CA  GLU    20      39.363  37.265  41.140  1.00  0.98     0.177 C 
ATOM     49  H   GLU    20      40.963  38.590  40.605  1.00  0.98     0.163 HD
ATOM     50  C   GLU    20      38.136  37.802  41.893  1.00  0.98     0.241 C 
ATOM     51  CB  GLU    20      40.377  36.639  42.117  1.00  0.98     0.045 C 
ATOM     52  N   TRP    21      38.295  38.937  42.574  1.00  1.14    -0.346 N 
ATOM     53  O   GLU    20      37.041  37.234  41.808  1.00  0.98    -0.271 OA
ATOM     54  H   TRP    21      39.235  39.314  42.638  1.00  1.14     0.163 HD
ATOM     55  CA  TRP    21      37.229  39.676  43.253  1.00  1.14     0.181 C 
ATOM     56  C   TRP    21      36.083  40.051  42.313  1.00  1.14     0.241 C 
ATOM     57  CB  TRP    21      37.880  40.916  43.886  1.00  1.14     0.075 C 
ATOM     58  N   PHE    22      36.352  40.486  41.079  1.00  1.13    -0.346 N 
ATOM     59  O   TRP    21      34.923  39.869  42.677  1.00  1.14    -0.271 OA
ATOM     60  CA  PHE    22      35.272  40.700  40.109  1.00  1.13     0.180 C 
ATOM     61  H   PHE    22      37.313  40.665  40.812  1.00  1.13     0.163 HD
ATOM     62  C   PHE    22      34.581  39.390  39.680  1.00  1.13     0.241 C 
ATOM     63  CB  PHE    22      35.795  41.472  38.892  1.00  1.13     0.073 C 
ATOM     64  N   ASN    23      35.328  38.298  39.486  1.00  1.18    -0.346 N 
ATOM     65  O   PHE    22      33.359  39.347  39.562  1.00  1.13    -0.271 OA
ATOM     66  CA  ASN    23      34.749  37.003  39.101  1.00  1.18     0.185 C 
ATOM     67  H   ASN    23      36.335  38.365  39.589  1.00  1.18     0.163 HD
ATOM     68  C   ASN    23      33.969  36.298  40.241  1.00  1.18     0.241 C 
ATOM     69  CB  ASN    23      35.868  36.112  38.528  1.00  1.18     0.137 C 
ATOM     70  O   ASN    23      33.250  35.337  39.985  1.00  1.18    -0.271 OA
ATOM     71  N   SER    24      34.098  36.771  41.486  1.00  1.47    -0.344 N 
ATOM     72  H   SER    24      34.782  37.500  41.643  1.00  1.47     0.163 HD
ATOM     73  CA  SER    24      33.440  36.195  42.671  1.00  1.47     0.200 C 
ATOM     74  C   SER    24      32.371  37.111  43.291  1.00  1.47     0.243 C 
ATOM     75  CB  SER    24      34.493  35.759  43.698  1.00  1.47     0.199 C 
ATOM     76  N   ILE    25      32.391  38.415  42.983  1.00  1.72    -0.346 N 
ATOM     77  O   SER    24      31.476  36.613  43.970  1.00  1.47    -0.271 OA
ATOM     78  H   ILE    25      33.225  38.769  42.525  1.00  1.72     0.163 HD
ATOM     79  CA  ILE    25      31.379  39.413  43.364  1.00  1.72     0.180 C 
ATOM     80  C   ILE    25      31.064  40.365  42.183  1.00  1.72     0.241 C 
ATOM     81  CB  ILE    25      31.720  40.183  44.674  1.00  1.72     0.013 C 
ATOM     82  N   CYS    26      30.593  39.811  41.061  1.00  2.60    -0.347 N 
ATOM     83  O   ILE    25      31.239  41.579  42.258  1.00  1.72    -0.271 OA
ATOM     84  H   CYS    26      30.537  38.804  41.029  1.00  2.60     0.163 HD
ATOM     85  CA  CYS    26      30.316  40.526  39.804  1.00  2.60     0.171 C 
ATOM     86  CB  CYS    26      29.565  39.588  38.846  1.00  2.60     0.104 C 
ATOM     87  C   CYS    26      29.617  41.884  39.990  1.00  2.60     0.220 C 
ATOM     88  SG  CYS    26      30.481  38.032  38.641  1.00  2.60    -0.180 SA
ATOM     89  HG  CYS    26      31.711  38.576  38.650  1.00  2.60     0.101 HD
ATOM     90  O   CYS    26      29.315  42.334  41.095  1.00  2.60    -0.287 OA
ATOM     91  CG2 ILE    25      30.428  40.844  45.204  1.00  1.72     0.012 C 
ATOM     92  CG1 ILE    25      32.281  39.337  45.847  1.00  1.72     0.002 C 
ATOM     93  CD1 ILE    25      33.807  39.212  45.842  1.00  1.72     0.005 C 
ATOM     94  OG  SER    24      35.451  36.769  43.949  1.00  1.47    -0.398 OA
ATOM     95  HG  SER    24      36.063  36.819  43.189  1.00  1.47     0.209 HD
ATOM     96  CG  ASN    23      35.383  35.159  37.444  1.00  1.18     0.217 C 
ATOM     97  ND2 ASN    23      34.463  34.271  37.731  1.00  1.18    -0.370 N 
ATOM     98  OD1 ASN    23      35.799  35.221  36.302  1.00  1.18    -0.274 OA
ATOM     99 1HD2 ASN    23      33.999  34.309  38.633  1.00  1.18     0.159 HD
ATOM    100 2HD2 ASN    23      34.148  33.687  36.980  1.00  1.18     0.159 HD
ATOM    101  CG  PHE    22      34.701  41.785  37.885  1.00  1.13    -0.056 A 
ATOM    102  CD2 PHE    22      34.709  41.184  36.612  1.00  1.13     0.007 A 
ATOM    103  CD1 PHE    22      33.637  42.634  38.248  1.00  1.13     0.007 A 
ATOM    104  CE2 PHE    22      33.660  41.433  35.707  1.00  1.13     0.001 A 
ATOM    105  CZ  PHE    22      32.596  42.274  36.077  1.00  1.13     0.000 A 
ATOM    106  CE1 PHE    22      32.584  42.874  37.348  1.00  1.13     0.001 A 
ATOM    107  CG  TRP    21      36.956  41.964  44.412  1.00  1.14    -0.028 A 
ATOM    108  CD1 TRP    21      36.371  41.960  45.628  1.00  1.14     0.096 A 
ATOM    109  CD2 TRP    21      36.499  43.180  43.746  1.00  1.14    -0.002 A 
ATOM    110  NE1 TRP    21      35.577  43.082  45.761  1.00  1.14    -0.365 N 
ATOM    111  HE1 TRP    21      35.016  43.274  46.577  1.00  1.14     0.165 HD
ATOM    112  CE2 TRP    21      35.619  43.870  44.630  1.00  1.14     0.042 A 
ATOM    113  CZ2 TRP    21      34.998  45.078  44.280  1.00  1.14     0.030 A 
ATOM    114  CH2 TRP    21      35.253  45.636  43.016  1.00  1.14     0.002 A 
ATOM    115  CZ3 TRP    21      36.119  44.984  42.122  1.00  1.14     0.001 A 
ATOM    116  CE3 TRP    21      36.732  43.769  42.483  1.00  1.14     0.014 A 
ATOM    117  CG  GLU    20      39.732  35.546  42.988  1.00  0.98     0.116 C 
ATOM    118  CD  GLU    20      40.729  34.814  43.900  1.00  0.98     0.172 C 
ATOM    119  OE1 GLU    20      41.765  35.420  44.258  1.00  0.98    -0.648 OA
ATOM    120  OE2 GLU    20      40.433  33.644  44.235  1.00  0.98    -0.648 OA
ATOM    121  CG1 VAL    18      42.079  44.138  39.976  1.00  1.02     0.012 C 
ATOM    122  CG2 VAL    18      40.143  44.830  41.372  1.00  1.02     0.012 C 
ATOM    123  CB  LEU    17      43.951  40.338  44.522  1.00  0.94     0.038 C 
ATOM    124  CG  LEU    17      44.385  39.231  45.499  1.00  0.94    -0.020 C 
ATOM    125  CD1 LEU    17      45.433  38.287  44.911  1.00  0.94     0.009 C 
ATOM    126  CD2 LEU    17      44.973  39.888  46.748  1.00  0.94     0.009 C 
ENDBRANCH  27  29
ENDBRANCH  21  25
ENDBRANCH  19  21
ENDBRANCH  13  17
ENDBRANCH  10  13
ENDBRANCH   5   9
ENDBRANCH   3   5
BRANCH   1 127
ATOM    127  CA  THR    13      49.427  40.511  42.316  1.00  0.82     0.205 C 
ATOM    128  CB  THR    13      50.160  40.227  43.636  1.00  0.82     0.146 C 
ATOM    129  OG1 THR    13      50.807  41.368  44.149  1.00  0.82    -0.393 OA
ATOM    130  CG2 THR    13      51.236  39.156  43.486  1.00  0.82     0.042 C 
ATOM    131  HG1 THR    13      50.779  42.051  43.454  1.00  0.82     0.210 HD
BRANCH 127 132
ATOM    132  N   THR    13      50.272  41.102  41.260  1.00  0.82    -0.344 N 
ATOM    133  H   THR    13      51.188  41.442  41.509  1.00  0.82     0.163 HD
ATOM    134  C   GLN    12      49.836  41.320  40.013  1.00  1.01     0.241 C 
ATOM    135  O   GLN    12      48.731  40.923  39.643  1.00  1.01    -0.271 OA
BRANCH 134 136
ATOM    136  CA  GLN    12      50.697  42.161  39.055  1.00  1.01     0.177 C 
ATOM    137  CB  GLN    12      51.962  41.436  38.547  1.00  1.01     0.044 C 
ATOM    138  CG  GLN    12      51.760  39.982  38.083  1.00  1.01     0.105 C 
ATOM    139  CD  GLN    12      51.808  38.968  39.223  1.00  1.01     0.215 C 
ATOM    140  NE2 GLN    12      51.081  37.882  39.141  1.00  1.01    -0.370 N 
ATOM    141  OE1 GLN    12      52.475  39.150  40.230  1.00  1.01    -0.274 OA
ATOM    142 1HE2 GLN    12      50.518  37.691  38.331  1.00  1.01     0.159 HD
ATOM    143 2HE2 GLN    12      51.140  37.239  39.909  1.00  1.01     0.159 HD
BRANCH 136 144
ATOM    144  N   GLN    12      51.128  43.438  39.629  1.00  1.01    -0.346 N 
ATOM    145  H   GLN    12      52.102  43.559  39.853  1.00  1.01     0.163 HD
ATOM    146  C   LEU    11      50.283  44.421  39.939  1.00  1.16     0.241 C 
ATOM    147  O   LEU    11      49.089  44.349  39.665  1.00  1.16    -0.271 OA
BRANCH 146 148
ATOM    148  CA  LEU    11      50.815  45.640  40.716  1.00  1.16     0.177 C 
ATOM    149  CB  LEU    11      51.371  46.714  39.757  1.00  1.16     0.038 C 
ATOM    150  CG  LEU    11      50.370  47.250  38.712  1.00  1.16    -0.020 C 
ATOM    151  CD2 LEU    11      51.081  48.236  37.787  1.00  1.16     0.009 C 
ATOM    152  CD1 LEU    11      49.191  47.975  39.359  1.00  1.16     0.009 C 
BRANCH 148 153
ATOM    153  N   LEU    11      51.848  45.376  41.739  1.00  1.16    -0.346 N 
ATOM    154  H   LEU    11      52.492  46.132  41.926  1.00  1.16     0.163 HD
ATOM    155  C   ARG    10      51.797  44.377  42.624  1.00  1.09     0.241 C 
ATOM    156  O   ARG    10      51.065  43.410  42.491  1.00  1.09    -0.271 OA
BRANCH 155 157
ATOM    157  CA  ARG    10      52.695  44.425  43.849  1.00  1.09     0.176 C 
ATOM    158  CB  ARG    10      54.016  43.660  43.635  1.00  1.09     0.036 C 
ATOM    159  CG  ARG    10      55.091  43.880  44.724  1.00  1.09     0.023 C 
ATOM    160  CD  ARG    10      54.821  43.281  46.119  1.00  1.09     0.138 C 
ATOM    161  NE  ARG    10      54.602  41.819  46.078  1.00  1.09    -0.227 N 
ATOM    162  HE  ARG    10      54.984  41.331  45.286  1.00  1.09     0.177 HD
ATOM    163  CZ  ARG    10      54.061  41.064  47.022  1.00  1.09     0.665 C 
ATOM    164  NH2 ARG    10      53.984  39.773  46.867  1.00  1.09    -0.235 N 
ATOM    165  NH1 ARG    10      53.581  41.554  48.131  1.00  1.09    -0.235 N 
ATOM    166 1HH2 ARG    10      54.342  39.338  46.036  1.00  1.09     0.174 HD
ATOM    167 2HH2 ARG    10      53.573  39.207  47.587  1.00  1.09     0.174 HD
ATOM    168 2HH1 ARG    10      53.224  40.962  48.855  1.00  1.09     0.174 HD
ATOM    169 1HH1 ARG    10      53.578  42.561  48.293  1.00  1.09     0.174 HD
BRANCH 157 170
ATOM    170  N   ARG    10      51.965  43.848  44.988  1.00  1.09    -0.346 N 
ATOM    171  H   ARG    10      51.712  42.867  44.937  1.00  1.09     0.163 HD
ATOM    172  C   CYS     9      51.488  44.530  46.028  1.00  1.20     0.241 C 
ATOM    173  O   CYS     9      51.691  45.733  46.168  1.00  1.20    -0.271 OA
BRANCH 172 174
ATOM    174  CA  CYS     9      50.664  43.719  47.044  1.00  1.20     0.185 C 
ATOM    175  CB  CYS     9      49.229  43.470  46.564  1.00  1.20     0.105 C 
ATOM    176  SG  CYS     9      48.443  42.207  47.601  1.00  1.20    -0.180 SA
ATOM    177  HG  CYS     9      48.462  42.892  48.747  1.00  1.20     0.101 HD
BRANCH 174 178
ATOM    178  N   CYS     9      50.618  44.367  48.346  1.00  1.20    -0.346 N 
ATOM    179  C   GLY     8      51.691  44.677  49.072  1.00  1.76     0.236 C 
ATOM    180  O   GLY     8      52.767  44.099  48.901  1.00  1.76    -0.272 OA
ATOM    181  H   CYS     9      49.797  44.929  48.521  1.00  1.20     0.163 HD
BRANCH 179 182
ATOM    182  CA  GLY     8      51.550  45.765  50.149  1.00  1.76     0.225 C 
BRANCH 182 183
ATOM    183  N   GLY     8      50.228  45.980  50.777  1.00  1.76    -0.351 N 
ATOM    184  C   LEU     7      49.116  46.403  50.168  1.00  2.15     0.240 C 
ATOM    185  O   LEU     7      48.993  46.436  48.946  1.00  2.15    -0.271 OA
ATOM    186  H   GLY     8      50.217  46.005  51.785  1.00  1.76     0.163 HD
BRANCH 184 187
ATOM    187  CA  LEU     7      47.913  46.788  51.030  1.00  2.15     0.177 C 
ATOM    188  CB  LEU     7      46.805  45.718  50.895  1.00  2.15     0.038 C 
ATOM    189  CG  LEU     7      45.712  45.734  51.977  1.00  2.15    -0.020 C 
ATOM    190  CD2 LEU     7      44.780  44.537  51.757  1.00  2.15     0.009 C 
ATOM    191  CD1 LEU     7      44.848  46.994  51.988  1.00  2.15     0.009 C 
BRANCH 187 192
ATOM    192  N   LEU     7      47.413  48.075  50.549  1.00  2.15    -0.346 N 
ATOM    193  H   LEU     7      46.694  48.056  49.836  1.00  2.15     0.163 HD
ATOM    194  C   GLY     6      48.073  49.225  50.709  1.00  2.24     0.236 C 
ATOM    195  O   GLY     6      48.911  49.372  51.590  1.00  2.24    -0.272 OA
BRANCH 194 196
ATOM    196  CA  GLY     6      47.822  50.308  49.653  1.00  2.24     0.225 C 
BRANCH 196 197
ATOM    197  N   GLY     6      47.911  49.755  48.300  1.00  2.24    -0.350 N 
ATOM    198  H   GLY     6      47.053  49.447  47.871  1.00  2.24     0.163 HD
ATOM    199  C   SER     5      49.088  49.465  47.720  1.00  1.69     0.242 C 
ATOM    200  O   SER     5      50.154  49.921  48.134  1.00  1.69    -0.271 OA
BRANCH 199 201
ATOM    201  CA  SER     5      49.120  48.469  46.547  1.00  1.69     0.200 C 
ATOM    202  CB  SER     5      49.307  49.260  45.244  1.00  1.69     0.199 C 
ATOM    203  OG  SER     5      49.141  48.448  44.093  1.00  1.69    -0.398 OA
ATOM    204  HG  SER     5      48.172  48.364  44.016  1.00  1.69     0.209 HD
BRANCH 201 205
ATOM    205  N   SER     5      47.934  47.587  46.611  1.00  1.69    -0.344 N 
ATOM    206  C   LEU     4      46.799  47.597  45.911  1.00  1.85     0.241 C 
ATOM    207  O   LEU     4      46.606  48.271  44.900  1.00  1.85    -0.271 OA
ATOM    208  H   SER     5      47.953  46.969  47.414  1.00  1.69     0.163 HD
BRANCH 206 209
ATOM    209  CA  LEU     4      45.668  46.754  46.502  1.00  1.85     0.177 C 
ATOM    210  CB  LEU     4      45.275  45.580  45.586  1.00  1.85     0.038 C 
ATOM    211  CG  LEU     4      44.198  44.659  46.191  1.00  1.85    -0.020 C 
ATOM    212  CD1 LEU     4      43.569  43.807  45.094  1.00  1.85     0.009 C 
ATOM    213  CD2 LEU     4      44.793  43.744  47.264  1.00  1.85     0.009 C 
BRANCH 209 214
ATOM    214  N   LEU     4      44.508  47.614  46.679  1.00  1.85    -0.346 N 
ATOM    215  H   LEU     4      43.863  47.710  45.911  1.00  1.85     0.163 HD
ATOM    216  C   ILE     3      44.376  48.434  47.715  1.00  2.28     0.241 C 
ATOM    217  O   ILE     3      45.184  48.428  48.644  1.00  2.28    -0.271 OA
BRANCH 216 218
ATOM    218  CA  ILE     3      43.264  49.480  47.646  1.00  2.28     0.180 C 
ATOM    219  CB  ILE     3      41.818  48.924  47.708  1.00  2.28     0.013 C 
ATOM    220  CG2 ILE     3      41.348  48.155  46.460  1.00  2.28     0.012 C 
ATOM    221  CG1 ILE     3      41.525  48.143  49.014  1.00  2.28     0.002 C 
ATOM    222  CD1 ILE     3      41.959  46.669  49.079  1.00  2.28     0.005 C 
BRANCH 218 223
ATOM    223  N   ILE     3      43.456  50.372  46.488  1.00  2.28    -0.346 N 
ATOM    224  H   ILE     3      42.802  50.328  45.715  1.00  2.28     0.163 HD
ATOM    225  C   ARG     2      44.549  51.126  46.322  1.00  2.42     0.241 C 
ATOM    226  O   ARG     2      45.459  51.156  47.142  1.00  2.42    -0.271 OA
BRANCH 225 227
ATOM    227  CA  ARG     2      44.690  51.954  45.033  1.00  2.42     0.176 C 
ATOM    228  CB  ARG     2      43.658  53.087  44.864  1.00  2.42     0.036 C 
ATOM    229  CG  ARG     2      43.826  54.207  45.907  1.00  2.42     0.023 C 
ATOM    230  CD  ARG     2      42.933  55.426  45.613  1.00  2.42     0.138 C 
ATOM    231  NE  ARG     2      43.328  56.120  44.367  1.00  2.42    -0.227 N 
ATOM    232  CZ  ARG     2      42.822  57.242  43.877  1.00  2.42     0.665 C 
ATOM    233  HE  ARG     2      44.058  55.679  43.835  1.00  2.42     0.177 HD
ATOM    234  NH2 ARG     2      43.267  57.716  42.748  1.00  2.42    -0.235 N 
ATOM    235  NH1 ARG     2      41.883  57.911  44.483  1.00  2.42    -0.235 N 
ATOM    236 1HH2 ARG     2      43.985  57.230  42.241  1.00  2.42     0.174 HD
ATOM    237 2HH2 ARG     2      42.882  58.563  42.374  1.00  2.42     0.174 HD
ATOM    238 2HH1 ARG     2      41.524  58.762  44.092  1.00  2.42     0.174 HD
ATOM    239 1HH1 ARG     2      41.526  57.562  45.354  1.00  2.42     0.174 HD
BRANCH 227 240
ATOM    240  N   ARG     2      44.753  51.126  43.816  1.00  2.42    -0.346 N 
ATOM    241  C   ALA     1      43.812  50.324  43.313  1.00  2.91     0.257 C 
ATOM    242  O   ALA     1      42.678  50.254  43.801  1.00  2.91    -0.271 OA
ATOM    243  H   ARG     2      45.650  51.026  43.353  1.00  2.42     0.163 HD
BRANCH 241 244
ATOM    244  CA  ALA     1      44.206  49.467  42.095  1.00  2.91     0.396 C 
ATOM    245  CB  ALA     1      43.949  47.974  42.326  1.00  2.91     0.059 C 
ATOM    246  N   ALA     1      45.604  49.631  41.699  1.00  2.91     0.614 N 
ENDBRANCH 241 244
ENDBRANCH 227 240
ENDBRANCH 225 227
ENDBRANCH 218 223
ENDBRANCH 216 218
ENDBRANCH 209 214
ENDBRANCH 206 209
ENDBRANCH 201 205
ENDBRANCH 199 201
ENDBRANCH 196 197
ENDBRANCH 194 196
ENDBRANCH 187 192
ENDBRANCH 184 187
ENDBRANCH 182 183
ENDBRANCH 179 182
ENDBRANCH 174 178
ENDBRANCH 172 174
ENDBRANCH 157 170
ENDBRANCH 155 157
ENDBRANCH 148 153
ENDBRANCH 146 148
ENDBRANCH 136 144
ENDBRANCH 134 136
ENDBRANCH 127 132
ENDBRANCH   1 127
TORSDOF 102
